101
-4302.99154436721
 C            1.7578509721        2.5294206637       -9.2469958698
 H            0.9719698150        1.7733564156       -9.1570316630
 H            2.6840642028        2.1272928158       -8.8279258322
 H            1.4483173182        3.3660583144       -8.6613259268
 C            1.8905510735        2.8910932955      -10.7194829691
 O            0.9117360989        3.3241444904      -11.3662328537
 N            3.0829982700        2.6651319323      -11.2940435038
 H            3.8299543541        2.2788749083      -10.7245426488
 C            3.3267254952        2.6598525237      -12.7386596241
 H            2.4159575904        2.3504024230      -13.2575563194
 H            4.1213950149        1.9353602851      -12.9242214778
 H            3.6356023470        3.6398026572      -13.1032634325
 C            7.0915871058        4.6236746700       -7.2488141723
 H            6.7589883779        4.4139077021       -6.2306843559
 H            7.9273877373        3.9740995992       -7.4985069508
 N            5.9673573924        4.3096574206       -8.1766251691
 H            6.1993647859        4.5174176173       -9.1665976960
 H            5.0976894267        4.7970425547       -7.9057772538
 H            5.7679603800        3.2725488348       -8.1819941034
 H            7.3940093152        5.6839616408       -7.3352555764
 C           11.7348915158        1.8500160836      -11.6469469169
 H           12.5935509404        1.2503011288      -11.9704318277
 H           10.9200112214        1.7874435834      -12.3693953693
 O           11.2400490554        1.3412390256      -10.4040134722
 H           11.9024906694        1.5690059441       -9.6865750054
 H           12.0473659544        2.9146019238      -11.5297016895
 C            8.5289918055       -4.3044823105       -9.6769553216
 O            9.3627472505       -5.2329421690       -9.6807318942
 H            7.7734735271       -4.2843472724      -10.4700939620
 N            8.4546669194       -3.2996822753       -8.8018289414
 H            7.5934639281       -2.7340973317       -8.8086648084
 C            9.4252765773       -3.0231455246       -7.7625893940
 H           10.3674373237       -3.4983010101       -8.0489633183
 C            9.6443373200       -1.4787550593       -7.6838673196
 H            8.6758015903       -1.0119603593       -7.4830487826
 O           10.0047815634       -1.0058229872       -8.9913266699
 H           10.8056565973       -1.4924381877       -9.3211133964
 C           10.6828096873       -1.0178408127       -6.6643228085
 H           10.8690766833        0.0492113902       -6.8103685429
 H           11.6350851568       -1.5489926925       -6.7879005560
 H           10.3326014184       -1.1609674574       -5.6377645429
 C            9.0083849311       -3.5756369800       -6.3824148713
 O            7.8413381343       -3.5764361693       -5.9816715490
 N           10.0636987327       -4.0004912148       -5.6460174388
 H           11.0140367594       -4.0328137934       -6.0380617392
 H            9.9910495276       -4.2033641317       -4.6402187716
 C            5.7553471683        1.5059577616       -4.6706786629
 O            5.6225675805        2.1207728878       -3.5987094973
 H            6.5924703882        0.8167760652       -4.8086055629
 N            4.9108371106        1.5917519297       -5.7120144059
 H            5.2023457635        1.2674191781       -6.6495857249
 H            4.1102694203        2.2458682084       -5.7167710700
 C            1.5531547587       -2.0178964014       -6.1030096254
 H            0.6486648405       -1.5010169200       -6.4335076765
 H            1.3985653022       -3.0959592455       -6.2483316649
 H            1.7174531115       -1.8401239672       -5.0167373250
 C            2.7759162404       -1.6131702602       -6.9062867402
 O            3.9241210606       -1.8054056523       -6.4660792961
 N            2.5729568865       -1.0431669464       -8.1079004809
 H            3.3757928945       -0.7644457946       -8.6814186437
 H            1.6270799998       -0.8704186450       -8.4582627692
 C            3.0255916564       -2.1448797128      -11.4493271606
 H            2.3788965190       -2.9498142630      -11.0979429433
 H            3.8021956594       -1.9857118418      -10.7035623033
 N            3.6152259487       -2.5754111064      -12.7261734116
 H            3.1288778996       -3.3403642250      -13.2149980039
 C            4.7816951816       -2.1212301714      -13.2050078889
 N            5.5139910593       -1.2404771221      -12.5217505530
 H            6.2842093929       -0.7467658592      -12.9716819500
 H            5.2722609083       -0.9272147051      -11.5590658314
 N            5.2210868858       -2.5851397535      -14.3962273382
 H            4.5642854777       -3.0024120078      -15.0619994865
 H            6.1316968420       -2.2718948052      -14.7586302588
 H            2.4428442064       -1.2082770423      -11.5917992180
MG            9.2499028273        0.7731393798       -9.8694426191
 C            6.0608778718        1.6576762156      -15.7603853254
 H            6.1540159451        0.5702365438      -15.6659177622
 H            5.2535366668        1.9949034732      -15.0989702202
 O            7.2865351461        2.2979624695      -15.3943465760
 P            8.0185135423        1.9281029524      -13.9845710965
 O            9.3915165280        2.5397020000      -14.0532590135
 O            7.8507626880        0.4347076677      -13.6863287652
 O            7.0211673728        2.7494314752      -12.9711045429
 P            7.1420386060        2.7906401781      -11.3194445752
 O            6.7135222102        4.1895594187      -10.9087853549
 O            8.5345908067        2.3181336320      -10.9661429373
 O            6.0161594999        1.7303174648      -10.8911648469
 P            5.9776444357        0.6976951674       -9.4961400157
 O            5.5376277264        1.6325431019       -8.3575973163
 O            7.4043681036        0.1598536401       -9.3602723215
 O            4.9122462023       -0.2992191377       -9.9362618024
 H            5.8164354536        1.9138957019      -16.8070702628
 O            9.5323076189        1.9603698067       -8.1868179962
 H            9.0783114503        2.0230330006       -7.3200190530
 H           10.3541912049        2.5371135566       -8.0907647129
 O            9.3406630708       -0.4202495616      -11.6443224373
 H            8.7638987514       -0.1158614791      -12.3972420991
 H            9.2209950440       -1.3907075196      -11.5767254520
 O            5.9273480417       -2.8210233217       -7.9733045141
 H            5.2085031252       -2.2706726769       -7.5890518153
 H            6.3636734892       -3.2076132387       -7.1914683991
