101
-4302.95313924386
 C            1.8489409884        2.5052063365       -9.2895148761
 H            1.1009613523        1.7159584033       -9.1694357742
 H            2.8140539773        2.1509405722       -8.9149420782
 H            1.5215370873        3.3267823780       -8.6929569684
 C            1.8915268861        2.8740656523      -10.7678210663
 O            0.8449877648        3.2641709265      -11.3389578550
 N            3.0466761438        2.6922100373      -11.4137908148
 H            3.8939337858        2.3364901178      -10.9469669521
 C            3.1911312045        2.7215460246      -12.8696249706
 H            2.2377359932        2.4787761422      -13.3418707508
 H            3.9422986852        1.9713580217      -13.1209635185
 H            3.5303816867        3.6953494537      -13.2134443874
 C            6.9672894580        4.3049580622       -7.3162107702
 H            6.5842133974        4.0718871054       -6.3213166996
 H            7.8603777095        3.7154174716       -7.5085723145
 N            5.9395672657        3.9012743409       -8.3205217628
 H            6.2287396622        4.0864428585       -9.3205628040
 H            5.0273506898        4.3617195733       -8.1670343874
 H            5.8140609212        2.8656206266       -8.2683199441
 H            7.2045513860        5.3837732275       -7.3820116942
 C           11.6534661384        1.8095696870      -11.6481150467
 H           12.5174599182        1.1962920620      -11.9336883353
 H           10.8717883370        1.7618556908      -12.4083456564
 O           11.0872900243        1.3174347866      -10.4320485709
 H           11.7409934062        1.4904850465       -9.6937542396
 H           11.9810465215        2.8669874601      -11.5157705521
 C            8.5626881996       -4.2248335732       -9.7081431155
 O            9.2197904776       -5.2780663717       -9.5803097497
 H            7.8193562683       -4.1702742712      -10.5133058240
 N            8.6488250784       -3.1406760799       -8.9320066739
 H            8.0974535455       -2.3023130384       -9.1825309002
 C            9.6424693902       -2.9715048108       -7.8817555262
 H           10.5377065634       -3.5401565921       -8.1489658196
 C           10.0081802939       -1.4562106659       -7.7785053431
 H            9.1206171609       -0.9177282712       -7.4451435997
 O           10.2430268301       -0.9645699768       -9.0969056654
 H           10.9925822711       -1.4527616660       -9.5211387170
 C           11.1771472100       -1.1163852658       -6.8612391597
 H           11.4821747822       -0.0859535943       -7.0609610795
 H           12.0388694181       -1.7738914927       -7.0229717633
 H           10.8803330837       -1.1695210321       -5.8107924021
 C            9.1249035634       -3.4625228858       -6.5222426051
 O            7.9471254094       -3.3150720931       -6.1780114257
 N           10.0895293302       -3.9980966929       -5.7384421284
 H           11.0556377387       -4.0925986510       -6.0820831589
 H            9.9606938365       -4.1591866984       -4.7303602550
 C            5.6656967667        1.6408658593       -4.4260923043
 O            5.4384930111        2.2783449551       -3.3835747312
 H            6.5264734942        0.9737768189       -4.4929243037
 N            4.8848253842        1.6380231157       -5.5217543692
 H            5.2851641167        1.2827607374       -6.4254960509
 H            4.0471509160        2.2367968260       -5.6106254569
 C            1.6215854087       -2.3110680567       -5.9829320009
 H            0.6509380596       -1.8847663288       -6.2371373326
 H            1.5576658972       -3.4055213991       -6.0409411024
 H            1.8905292521       -2.0457765596       -4.9348402206
 C            2.6808091466       -1.8598611367       -6.9336614368
 O            3.8794312751       -2.3245282064       -6.7251191379
 N            2.4623679533       -1.0389217833       -7.9273091743
 H            3.2967413399       -0.7991309760       -8.5204590122
 H            1.5108800249       -0.7496851078       -8.1827980299
 C            3.1400848299       -1.8064213222      -11.3953019585
 H            2.5948943061       -2.6330475527      -10.9330084788
 H            3.9559842474       -1.5314974009      -10.7218392429
 N            3.6666668813       -2.2783405567      -12.6816477548
 H            3.1750234604       -3.0782641859      -13.1034487642
 C            4.8350682987       -1.8804480782      -13.2100878412
 N            5.5834746162       -0.9333367673      -12.6490985985
 H            6.3816062459       -0.5173823339      -13.1435505637
 H            5.3193842746       -0.3921006828      -11.8231793179
 N            5.2697270781       -2.4931774769      -14.3378637266
 H            4.6002468309       -2.9507420129      -14.9615276719
 H            6.1616642635       -2.1957259299      -14.7564970013
 H            2.4628088714       -0.9405603884      -11.5497557887
MG            9.0505881135        0.6250725953       -9.8999971315
 C            6.1024501539        1.6627341733      -15.8244760739
 H            6.1412149561        0.5712638869      -15.7215843229
 H            5.3314671107        2.0459923810      -15.1435848161
 O            7.3684950223        2.2380674776      -15.5047620840
 P            8.0390395379        1.9131504800      -14.0422451709
 O            9.4248183020        2.5079846575      -14.0895835076
 O            7.8990099518        0.4004401664      -13.7713386397
 O            7.0125900923        2.7179269040      -13.1089093860
 P            6.8097751999        2.5665043590      -11.4115446074
 O            6.5509862250        4.0298700910      -10.9868404977
 O            8.1707314371        2.0290003762      -10.9502977448
 O            5.6178534199        1.6309936102      -11.2269045267
 P            6.1664504987       -0.3390041871       -8.4017968444
 O            5.9087589859        1.1028836434       -7.9380925426
 O            7.4474101829       -0.5476188025       -9.2452696344
 O            4.9046142280       -1.0603585939       -8.9581135969
 H            5.8412452436        1.9183124962      -16.8664935665
 O            9.3722306076        1.6988133543       -8.1122322059
 H            8.8927988002        1.8137362801       -7.2680066702
 H           10.1889683441        2.2844455049       -8.0204958235
 O            9.2940853071       -0.4930631075      -11.7041907287
 H            8.7368306229       -0.1486855694      -12.4598382043
 H            9.2422680594       -1.4715081089      -11.7340074990
 O            6.3920844999       -1.1606344665       -6.9792008363
 H            4.5381606664       -1.9578147020       -7.3995795224
 H            6.9508799374       -1.9667623278       -6.9586414557
